  Page 1                                    Fri Jan 28 10:17:40 2022

  ******************************************************************
  *                           E P A N E T                          *
  *                   Hydraulic and Water Quality                  *
  *                   Analysis for Pipe Networks                   *
  *                         Version 2.1                            *
  ******************************************************************
  
  Analysis begun Fri Jan 28 10:17:40 2022

  Analysis ended Fri Jan 28 10:17:40 2022
